data/open_dss/uhs20_1247/Master.dss
Clear

New Circuit.substation_uhs20_69 bus1=uhs20_69 pu=1.0 basekV=69.0 R1=1e-05 X1=1e-05 R0=1e-05 X0=1e-05

Redirect Transformers.dss
Redirect uhs20_1247--udt9897/Transformers.dss
Redirect uhs20_1247--udt8894/Transformers.dss
Redirect uhs20_1247--udt5173/Transformers.dss
Redirect Regulators.dss
Redirect uhs20_1247--udt9897/Loads.dss
Redirect uhs20_1247--udt8894/Loads.dss
Redirect uhs20_1247--udt5173/Loads.dss
Redirect LineCodes.dss
Redirect uhs20_1247--udt9897/LineCodes.dss
Redirect uhs20_1247--udt8894/LineCodes.dss
Redirect uhs20_1247--udt5173/LineCodes.dss
Redirect Lines.dss
Redirect uhs20_1247--udt9897/Lines.dss
Redirect uhs20_1247--udt8894/Lines.dss
Redirect uhs20_1247--udt5173/Lines.dss
Redirect uhs20_1247--udt9897/Capacitors.dss
Redirect uhs20_1247--udt5173/Capacitors.dss
Redirect uhs20_1247--udt8894/Capacitors.dss

Set Voltagebases=[12.47, 69.0]

Calcvoltagebases

Buscoords Buscoords.dss

Solve